# generated using pymatgen
data_Na2BeSiO4
_symmetry_space_group_name_H-M   'P 1'
_cell_length_a   4.92092389
_cell_length_b   6.98890119
_cell_length_c   9.86469973
_cell_angle_alpha   89.96469281
_cell_angle_beta   90.00000000
_cell_angle_gamma   90.00000000
_symmetry_Int_Tables_number   1
_chemical_formula_structural   Na2BeSiO4
_chemical_formula_sum   'Na8 Be4 Si4 O16'
_cell_volume   339.26521724
_cell_formula_units_Z   4
loop_
 _symmetry_equiv_pos_site_id
 _symmetry_equiv_pos_as_xyz
  1  'x, y, z'
loop_
 _atom_site_type_symbol
 _atom_site_label
 _atom_site_symmetry_multiplicity
 _atom_site_fract_x
 _atom_site_fract_y
 _atom_site_fract_z
 _atom_site_occupancy
  Na  Na0  1  0.20944124  0.00228536  0.10942084  1
  Na  Na1  1  0.68333014  0.26501638  0.14111320  1
  Na  Na2  1  0.18333014  0.73498462  0.35888680  1
  Na  Na3  1  0.31666986  0.73498462  0.85888680  1
  Na  Na4  1  0.81666986  0.26501638  0.64111320  1
  Na  Na5  1  0.70944124  0.99771464  0.39057916  1
  Na  Na6  1  0.29055876  0.00228536  0.60942084  1
  Na  Na7  1  0.79055876  0.99771464  0.89057916  1
  Be  Be8  1  0.84190992  0.49850594  0.91224709  1
  Be  Be9  1  0.34190992  0.50149406  0.58775291  1
  Be  Be10  1  0.15809008  0.50149406  0.08775291  1
  Be  Be11  1  0.65809008  0.49850594  0.41224709  1
  Si  Si12  1  0.84380703  0.72334547  0.65791559  1
  Si  Si13  1  0.65619297  0.72334547  0.15791559  1
  Si  Si14  1  0.15619297  0.27665453  0.34208441  1
  Si  Si15  1  0.34380703  0.27665453  0.84208441  1
  O  O16  1  0.83180357  0.56180280  0.07472572  1
  O  O17  1  0.83623283  0.31302575  0.37904910  1
  O  O18  1  0.33623283  0.68697425  0.12095090  1
  O  O19  1  0.16376717  0.68697425  0.62095090  1
  O  O20  1  0.66376717  0.31302575  0.87904910  1
  O  O21  1  0.76377548  0.94169949  0.62438082  1
  O  O22  1  0.33180357  0.43819720  0.42527528  1
  O  O23  1  0.16819643  0.43819720  0.92527428  1
  O  O24  1  0.66819643  0.56180280  0.57472572  1
  O  O25  1  0.70734122  0.68304494  0.31936439  1
  O  O26  1  0.20734122  0.31695506  0.18063561  1
  O  O27  1  0.29265878  0.31695506  0.68063561  1
  O  O28  1  0.23622452  0.05830051  0.37561918  1
  O  O29  1  0.26377548  0.05830051  0.87561918  1
  O  O30  1  0.73622452  0.94169949  0.12438082  1
  O  O31  1  0.79265878  0.68304494  0.81936439  1
