# generated using pymatgen
data_Mg(FeO2)2
_symmetry_space_group_name_H-M   'P 1'
_cell_length_a   5.82832254
_cell_length_b   5.82213883
_cell_length_c   5.82673818
_cell_angle_alpha   120.00606597
_cell_angle_beta   120.40715774
_cell_angle_gamma   89.68177510
_symmetry_Int_Tables_number   1
_chemical_formula_structural   Mg(FeO2)2
_chemical_formula_sum   'Mg2 Fe4 O8'
_cell_volume   139.32067996
_cell_formula_units_Z   2
loop_
 _symmetry_equiv_pos_site_id
 _symmetry_equiv_pos_as_xyz
  1  'x, y, z'
loop_
 _atom_site_type_symbol
 _atom_site_label
 _atom_site_symmetry_multiplicity
 _atom_site_fract_x
 _atom_site_fract_y
 _atom_site_fract_z
 _atom_site_occupancy
  Mg  Mg0  1  0.00000006  0.49999858  0.00000203  1
  Mg  Mg1  1  -0.00000230  -0.00000110  0.49999941  1
  Fe  Fe2  1  0.38353772  0.63180963  0.74831770  1
  Fe  Fe3  1  0.61646564  0.36819642  0.25168196  1
  Fe  Fe4  1  0.49999640  0.00000913  0.50000095  1
  Fe  Fe5  1  0.00000209  -0.00001004  -0.00000455  1
  O  O6  1  0.75107776  0.77300020  0.52177321  1
  O  O7  1  0.75094945  0.22602713  0.97526630  1
  O  O8  1  0.22333785  0.23227758  0.99083553  1
  O  O9  1  0.24893323  0.22700213  0.47823586  1
  O  O10  1  0.25856445  0.76789681  0.49130493  1
  O  O11  1  0.24904342  0.77398310  0.02473377  1
  O  O12  1  0.74143348  0.23210002  0.50869432  1
  O  O13  1  0.77666075  0.76771338  0.00916059  1
