# generated using pymatgen
data_YbAgGe
_symmetry_space_group_name_H-M   'P 1'
_cell_length_a   6.99275008
_cell_length_b   6.99275103
_cell_length_c   4.33955725
_cell_angle_alpha   90.00000000
_cell_angle_beta   90.00000000
_cell_angle_gamma   120.00000524
_symmetry_Int_Tables_number   1
_chemical_formula_structural   YbAgGe
_chemical_formula_sum   'Yb3 Ag3 Ge3'
_cell_volume   183.76893725
_cell_formula_units_Z   3
loop_
 _symmetry_equiv_pos_site_id
 _symmetry_equiv_pos_as_xyz
  1  'x, y, z'
loop_
 _atom_site_type_symbol
 _atom_site_label
 _atom_site_symmetry_multiplicity
 _atom_site_fract_x
 _atom_site_fract_y
 _atom_site_fract_z
 _atom_site_occupancy
  Yb  Yb0  1  -0.00000000  0.57284120  0.00000000  1
  Yb  Yb1  1  0.42715880  0.42715880  -0.00000000  1
  Yb  Yb2  1  0.57284120  -0.00000000  0.00000000  1
  Ag  Ag3  1  0.24323081  -0.00000000  0.50000000  1
  Ag  Ag4  1  0.75676919  0.75676919  0.50000000  1
  Ag  Ag5  1  -0.00000000  0.24323081  0.50000000  1
  Ge  Ge6  1  0.00000000  0.00000000  -0.00000000  1
  Ge  Ge7  1  0.66666700  0.33333300  0.50000000  1
  Ge  Ge8  1  0.33333300  0.66666700  0.50000000  1
