# generated using pymatgen
data_Sr3P4O13
_symmetry_space_group_name_H-M   'P 1'
_cell_length_a   7.27688857
_cell_length_b   7.74165433
_cell_length_c   10.16897147
_cell_angle_alpha   102.47184618
_cell_angle_beta   103.34579242
_cell_angle_gamma   94.33380298
_symmetry_Int_Tables_number   1
_chemical_formula_structural   Sr3P4O13
_chemical_formula_sum   'Sr6 P8 O26'
_cell_volume   539.48343337
_cell_formula_units_Z   2
loop_
 _symmetry_equiv_pos_site_id
 _symmetry_equiv_pos_as_xyz
  1  'x, y, z'
loop_
 _atom_site_type_symbol
 _atom_site_label
 _atom_site_symmetry_multiplicity
 _atom_site_fract_x
 _atom_site_fract_y
 _atom_site_fract_z
 _atom_site_occupancy
  Sr  Sr0  1  0.78509635  0.77142620  0.37439538  1
  Sr  Sr1  1  0.21490365  0.22857380  0.62560462  1
  Sr  Sr2  1  0.70823619  0.21797657  0.13782798  1
  Sr  Sr3  1  0.29176381  0.78202343  0.86217202  1
  Sr  Sr4  1  0.75227838  0.01889023  0.75827851  1
  Sr  Sr5  1  0.24772162  0.98110977  0.24172149  1
  P  P6  1  0.13951018  0.46288543  0.34769750  1
  P  P7  1  0.86048982  0.53711457  0.65230250  1
  P  P8  1  0.82484652  0.81133849  0.02228106  1
  P  P9  1  0.17515348  0.18866151  0.97771894  1
  P  P10  1  0.67058013  0.18992620  0.48843389  1
  P  P11  1  0.32941987  0.81007380  0.51156611  1
  P  P12  1  0.63789417  0.46141701  0.85977908  1
  P  P13  1  0.36210583  0.53858299  0.14022092  1
  O  O14  1  0.45504828  0.51181111  0.78784412  1
  O  O15  1  0.54495172  0.48818889  0.21215588  1
  O  O16  1  0.79111721  0.46937137  0.77200938  1
  O  O17  1  0.20888279  0.53062863  0.22799062  1
  O  O18  1  0.18478622  0.28213571  0.36246651  1
  O  O19  1  0.81521378  0.71786429  0.63753349  1
  O  O20  1  0.99119795  0.80876445  0.95779255  1
  O  O21  1  0.00880205  0.19123555  0.04220745  1
  O  O22  1  0.74067203  0.40191517  0.51461638  1
  O  O23  1  0.25932797  0.59808483  0.48538362  1
  O  O24  1  0.93400621  0.48735437  0.31901519  1
  O  O25  1  0.06599379  0.51264563  0.68098481  1
  O  O26  1  0.52760525  0.17987951  0.57348517  1
  O  O27  1  0.47239475  0.82012049  0.42651483  1
  O  O28  1  0.33807498  0.09985567  0.04740356  1
  O  O29  1  0.66192502  0.90014433  0.95259644  1
  O  O30  1  0.15346440  0.89496709  0.45631054  1
  O  O31  1  0.84653560  0.10503291  0.54368946  1
  O  O32  1  0.12006142  0.11558482  0.82082888  1
  O  O33  1  0.87993858  0.88441518  0.17917112  1
  O  O34  1  0.26347231  0.39622674  0.99918786  1
  O  O35  1  0.73652769  0.60377326  0.00081214  1
  O  O36  1  0.40320998  0.87346311  0.66745934  1
  O  O37  1  0.59679002  0.12653689  0.33254066  1
  O  O38  1  0.36951719  0.71670861  0.10605202  1
  O  O39  1  0.63048281  0.28329139  0.89394798  1
